72
NON_ORTHO 15 0 0 0 15 0 0 0 15
C 14.7858 -10.8947 11.727 0.018227162594831845 0.013412618605860982 -0.014155140497244862
C 15.6227 -11.8937 12.5411 -0.0028907503031375655 -0.01222593285281681 -0.019097275130356986
C 13.2821 -11.1851 11.796 -0.007660877905942397 -0.009155577424833203 0.003256631022063998
C 8.77741 6.78213 5.52503 -0.010589686145432209 -0.028190195682356776 -0.00504448543601645
C 8.77058 8.11943 6.25926 0.022397681633831247 0.054992157931895665 0.021985984657824875
C 7.46095 6.02044 5.74395 -0.012278638836021231 -0.02976892962086871 -0.010814846105681496
C 9.02466 11.2118 -0.148453 0.011346797052967072 -0.014346399969097064 -0.02299228945395024
C 8.30731 12.5561 0.0995139 0.015186322517442712 -0.01916684702818682 -0.031829691399375
C 9.40004 10.9916 -1.64082 -0.029998306059774348 0.03895368507800388 0.05423892618472466
C 1.58961 16.4036 -5.97084 -0.050096741882295945 -0.0685198864050751 -0.01913859662118925
C 0.706182 16.2982 -7.25283 0.023678732179204614 0.034462882320267854 0.016745407665416042
C 1.42115 15.1017 -5.12527 0.02635956930891427 0.04702335058967977 0.0074532584969035426
C 5.05039 17.653 12.1067 0.02600032532739294 0.014648721488757621 0.024729225671648564
C 4.77665 16.4463 11.2108 -0.014564223256484297 -0.013611046091428988 -0.0172663957681951
C 3.94829 18.7157 12.0427 -0.008389105934681236 -0.0005254525103804052 -0.009555215271882404
C 6.84085 15.9021 6.26846 0.012089571933070333 -0.00595686395359288 0.0038133495649769968
C 7.37074 17.2545 6.78012 -0.010472468038785578 -0.0033885983710505545 -0.005239818026250689
C 5.42684 16.009 5.67546 -0.0015129484385155065 0.009320441740296634 0.001038139209980834
C 7.27758 1.90228 16.1962 0.04887834820975599 0.01247951187920992 0.004941097379362659
C 6.15034 2.68956 15.5409 -0.03263014770749718 0.015717851816862655 -0.013738383746850867
C 6.82684 0.556396 16.7535 -0.016386332343040964 -0.028104010858620906 0.011058474242445611
C -0.476175 5.04446 15.0518 -0.018561107704415054 -0.0315817624543814 -0.009032118929775169
C 0.218598 5.8358 16.1612 0.01361990069660733 0.01453875572539992 0.02113931574362906
C -0.582948 3.53928 15.3878 -0.005404243827933857 0.023500796779906487 0.015776966847624734
C 2.11113 3.4257 4.47197 0.06468702297687651 -0.01585480304362102 0.06557282081300328
C 0.672128 3.85455 4.32369 -0.06457545495162939 0.018133135120795157 -0.02389031507818044
C 2.81725 3.13063 3.15929 0.0014591124390311832 -0.00326068727453141 -0.040543044542729834
C 9.52353 11.346 -10.1436 -0.007974061074621721 0.03944912132012544 -0.00471355932515119
C 9.01482 12.7746 -10.3953 -0.07654578486829804 0.025572015425480533 -0.03303366471491022
C 10.9219 11.4175 -9.53432 0.0837195329950719 -0.06317313848009928 0.03765568428843197
C 13.9754 -1.34356 -2.01374 -0.0027430976535493734 0.06789432963161848 0.006058953334820515
C 13.9509 -2.84106 -2.28537 -0.010445566904958042 -0.03888714904480662 -0.018818650220745133
C 13.2075 -0.522538 -3.07245 0.011138250018623822 -0.02731696295262593 0.013473588887231857
C 2.13773 -1.57944 4.51304 0.017419538272993865 0.006614457531880484 0.023725113444424507
C 2.22277 -1.23548 6.01388 0.016654669044731313 -0.001888855943686748 -0.004307251008867639
C 0.688325 -1.79194 4.06766 -0.0267664594992524 -0.010012365887804266 -0.023095846169750283
C 2.78154 -5.8987 12.0602 -0.02410181364758314 0.00028558631587348953 0.04526794619546661
C 1.97911 -4.58834 11.9849 -0.0019222251557731308 0.04998593282320697 -0.04939006005949107
C 2.50244 -6.58225 13.4185 0.029461379667674273 -0.05200284322368718 0.007757494297874085
C -4.92478 2.35435 27.1051 0.01198188306818706 -0.0039970699729916384 0.026889074698579162
C -6.32052 1.89763 26.6743 -0.03866215774370359 -0.004495339688770263 -0.03660223926092857
C -4.6427 1.95671 28.5672 0.025056508744954735 0.0071836146868297255 0.010996407676624083
C 12.5468 14.7173 2.94878 0.03329449608459226 -0.0033482045055226867 0.009747571028185258
C 11.1206 14.8625 2.42033 -0.0311089265378579 0.0018876921955775941 -0.01016213520967795
C 12.6292 14.8812 4.47622 -0.005309086337617268 0.002031954796326078 -0.0009150770639164962
C 7.28111 7.48412 -1.98027 -0.049376735986936995 -0.064030348590936 0.050198021699621564
C 7.98498 7.45269 -3.33175 0.03681154526142997 0.017613158972893624 -0.05831575506797987
C 6.62265 6.10741 -1.66467 0.012921567501542035 0.04696111536471199 0.008713353143354832
C -1.10771 6.46893 7.48876 -0.02857988263977698 -0.007570982580988936 -0.0573508560922599
C -1.75702 5.1279 7.88086 0.032521193899017 0.03480230885210432 0.026535986775896105
C -0.259651 7.10553 8.58719 -0.003975397272697981 -0.028258165318297196 0.030691157832586382
C 15.635 12.0786 8.87352 0.005354244824026816 -0.005701480274334852 0.0046567886565220444
C 14.3347 12.4451 8.14639 -0.017109880080471252 0.007785196562646328 -0.007281976700925144
C 16.071 10.6348 8.58264 0.006762202943999116 -0.010761465485892059 -0.002835016888257883
C 12.3884 22.4481 12.7381 0.018201695063747466 -0.029468547681390074 -0.01781791117644616
C 13.6143 23.2844 12.35 0.00842216312734705 0.0067046901751264525 -0.002359937805089204
C 11.3413 23.257 13.4966 -0.022864867468955233 0.017436994494631167 0.01777119259293376
C 10.9563 3.42222 17.6932 0.0091533848559319 -0.007890127850488343 -0.005133394104964323
C 9.71564 4.30413 17.8913 -0.00692995133086349 0.007020318901426461 0.0032170298545235246
C 12.1123 3.82006 18.6272 -0.00372471075066313 0.0029320380621405805 0.0013184675769698504
C 10.45 8.74233 2.35873 -0.017487170590641775 -0.07067821749968942 -0.0151613609637971
C 9.00797 8.10094 2.35122 0.1543619104261823 0.013071336823415719 -0.01376562219897091
C 11.572 7.69725 1.99224 -0.1250143756822296 0.05412356332868681 0.0286519000952275
C 5.84806 10.1545 2.72585 0.0013124211465766393 -0.02223568452385414 0.012271976799744193
C 5.85542 9.48403 4.11967 -0.002370166982309518 0.015325044665236747 -0.00372184354517681
C 6.00153 9.10531 1.6041 -0.0102476453968288 0.011380360223071649 -0.011029970846728658
C 2.68405 -1.35859 0.599034 0.01110915631589498 -0.01891158141033117 -0.003497046202091971
C 3.72851 -2.38428 0.126236 0.0026405275937549143 -0.037220122043230636 0.00755754044703248
C 2.99365 0.0307748 0.0365352 -0.01375415337702563 0.0562724495111109 -0.004643574212413032
C 16.2997 8.46847 18.3492 -0.00969250381693328 -0.020591510836595592 0.016604492948720705
C 16.7955 9.49549 17.3271 0.008098118309648959 0.017833849465767174 -0.007105542368028682
C 16.4616 8.95115 19.8016 0.002390895191384152 0.004746304498396432 -0.008113314498726456

